5884
     RDKit          3D

 78 82  0  0  1  0  0  0  0  0999 V2000
   -6.3062    3.4718   -0.9905 P   0  0  0  0  0  5  0  0  0  0  0  0
   -0.8492    0.1087    1.8516 P   0  0  1  0  0  5  0  0  0  0  0  0
    1.6667   -1.0333    1.7761 P   0  0  2  0  0  5  0  0  0  0  0  0
   -4.1110   -0.4524   -1.7683 O   0  0  0  0  0  0  0  0  0  0  0  0
    4.3001   -0.3561   -1.8032 O   0  0  0  0  0  0  0  0  0  0  0  0
   -4.7617    3.0849   -1.1589 O   0  0  0  0  0  0  0  0  0  0  0  0
   -2.7610    2.1183   -2.6119 O   0  0  0  0  0  0  0  0  0  0  0  0
    4.0045   -3.3495   -2.4780 O   0  0  0  0  0  0  0  0  0  0  0  0
    5.7802   -3.4081   -0.5320 O   0  0  0  0  0  0  0  0  0  0  0  0
   -1.0780   -0.2099    0.2962 O   0  0  0  0  0  0  0  0  0  0  0  0
    2.6360   -0.5620    0.5828 O   0  0  0  0  0  0  0  0  0  0  0  0
    0.7243    0.2144    2.0398 O   0  0  0  0  0  0  0  0  0  0  0  0
   -6.3161    5.0562   -0.9142 O   0  0  0  0  0  0  0  0  0  0  0  0
   -6.6652    3.0855    0.5133 O   0  0  0  0  0  0  0  0  0  0  0  0
   -7.2284    2.8547   -1.9831 O   0  0  0  0  0  0  0  0  0  0  0  0
   -1.3071    1.6475    1.9295 O   0  0  0  0  0  0  0  0  0  0  0  0
    2.7063   -0.9829    2.9924 O   0  0  0  0  0  0  0  0  0  0  0  0
   -1.6030   -0.7081    2.8417 O   0  0  0  0  0  0  0  0  0  0  0  0
    1.0315   -2.3592    1.5333 O   0  0  0  0  0  0  0  0  0  0  0  0
   10.0827   -1.2872    0.7379 O   0  0  0  0  0  0  0  0  0  0  0  0
   -6.2290    0.0396   -0.9275 N   0  0  0  0  0  0  0  0  0  0  0  0
    6.1634   -0.1647   -0.2468 N   0  0  0  0  0  0  0  0  0  0  0  0
   -8.2735   -0.8421   -0.7494 N   0  0  0  0  0  0  0  0  0  0  0  0
   -5.4616   -0.2379    1.3744 N   0  0  0  0  0  0  0  0  0  0  0  0
   -7.1520   -1.3092    2.7495 N   0  0  0  0  0  0  0  0  0  0  0  0
   -9.2676   -1.9624    1.9579 N   0  0  0  0  0  0  0  0  0  0  0  0
   10.2934    0.3616    2.2388 N   0  0  0  0  0  0  0  0  0  0  0  0
   -4.3539    1.7552   -0.8328 C   0  0  2  0  0  0  0  0  0  0  0  0
   -2.9210    1.5521   -1.3006 C   0  0  1  0  0  0  0  0  0  0  0  0
   -5.0680    0.6135   -1.5786 C   0  0  1  0  0  0  0  0  0  0  0  0
   -2.8019    0.0341   -1.3971 C   0  0  1  0  0  0  0  0  0  0  0  0
    3.6259   -2.5826   -1.3167 C   0  0  1  0  0  0  0  0  0  0  0  0
    4.8749   -2.2979   -0.4992 C   0  0  2  0  0  0  0  0  0  0  0  0
    3.1298   -1.1983   -1.7165 C   0  0  1  0  0  0  0  0  0  0  0  0
    5.4218   -1.0347   -1.1871 C   0  0  1  0  0  0  0  0  0  0  0  0
   -2.3756   -0.6349   -0.0876 C   0  0  0  0  0  0  0  0  0  0  0  0
    2.1208   -0.5847   -0.7401 C   0  0  0  0  0  0  0  0  0  0  0  0
   -6.3577   -0.3495    0.3788 C   0  0  0  0  0  0  0  0  0  0  0  0
   -7.4040   -0.2833   -1.5653 C   0  0  0  0  0  0  0  0  0  0  0  0
    7.4556   -0.5312    0.1507 C   0  0  0  0  0  0  0  0  0  0  0  0
   -7.6299   -0.8921    0.4668 C   0  0  0  0  0  0  0  0  0  0  0  0
    5.6389    1.0192    0.2640 C   0  0  0  0  0  0  0  0  0  0  0  0
    8.2246    0.1908    0.9889 C   0  0  0  0  0  0  0  0  0  0  0  0
    7.7068    1.4810    1.5656 C   0  0  0  0  0  0  0  0  0  0  0  0
    6.3083    1.8240    1.1067 C   0  0  0  0  0  0  0  0  0  0  0  0
   -8.0255   -1.3842    1.7229 C   0  0  0  0  0  0  0  0  0  0  0  0
   -5.9405   -0.7575    2.5228 C   0  0  0  0  0  0  0  0  0  0  0  0
    9.5862   -0.3149    1.2949 C   0  0  0  0  0  0  0  0  0  0  0  0
   -3.0754    3.0411   -2.5532 H   0  0  0  0  0  0  0  0  0  0  0  0
    4.3302   -2.7383   -3.1683 H   0  0  0  0  0  0  0  0  0  0  0  0
    5.4418   -4.0170   -1.2204 H   0  0  0  0  0  0  0  0  0  0  0  0
   -5.7442    5.3905   -0.1996 H   0  0  0  0  0  0  0  0  0  0  0  0
   -7.6154    2.8661    0.5943 H   0  0  0  0  0  0  0  0  0  0  0  0
   -1.5575    1.8711    2.8505 H   0  0  0  0  0  0  0  0  0  0  0  0
    3.3675   -0.2767    2.8758 H   0  0  0  0  0  0  0  0  0  0  0  0
   -9.2489   -2.5889    2.7534 H   0  0  0  0  0  0  0  0  0  0  0  0
   -9.7106   -2.2951    1.1055 H   0  0  0  0  0  0  0  0  0  0  0  0
   11.2146    0.0049    2.4605 H   0  0  0  0  0  0  0  0  0  0  0  0
    9.9474    1.1389    2.7776 H   0  0  0  0  0  0  0  0  0  0  0  0
   -4.3927    1.6474    0.2559 H   0  0  0  0  0  0  0  0  0  0  0  0
   -2.1804    2.0288   -0.6561 H   0  0  0  0  0  0  0  0  0  0  0  0
   -5.3825    0.9462   -2.5744 H   0  0  0  0  0  0  0  0  0  0  0  0
   -2.0994   -0.2467   -2.1887 H   0  0  0  0  0  0  0  0  0  0  0  0
    2.8889   -3.1801   -0.7719 H   0  0  0  0  0  0  0  0  0  0  0  0
    4.6280   -2.0986    0.5494 H   0  0  0  0  0  0  0  0  0  0  0  0
    2.6779   -1.2190   -2.7164 H   0  0  0  0  0  0  0  0  0  0  0  0
    6.0992   -1.3136   -2.0057 H   0  0  0  0  0  0  0  0  0  0  0  0
   -3.0990   -0.4318    0.7014 H   0  0  0  0  0  0  0  0  0  0  0  0
   -2.3535   -1.7220   -0.2173 H   0  0  0  0  0  0  0  0  0  0  0  0
    1.1895   -1.1581   -0.7814 H   0  0  0  0  0  0  0  0  0  0  0  0
    1.8999    0.4500   -1.0195 H   0  0  0  0  0  0  0  0  0  0  0  0
   -7.5632   -0.0841   -2.6191 H   0  0  0  0  0  0  0  0  0  0  0  0
    7.8047   -1.4699   -0.2788 H   0  0  0  0  0  0  0  0  0  0  0  0
    4.6392    1.2736   -0.0803 H   0  0  0  0  0  0  0  0  0  0  0  0
    7.6960    1.4158    2.6603 H   0  0  0  0  0  0  0  0  0  0  0  0
    8.3729    2.3024    1.2790 H   0  0  0  0  0  0  0  0  0  0  0  0
    5.8567    2.7445    1.4588 H   0  0  0  0  0  0  0  0  0  0  0  0
   -5.2659   -0.7233    3.3720 H   0  0  0  0  0  0  0  0  0  0  0  0
  1  6  1  0
  1 13  1  0
  1 14  1  0
  1 15  2  0
  2 10  1  6
  2 12  1  0
  2 16  1  0
  2 18  2  0
  3 11  1  6
  3 12  1  0
  3 17  1  0
  3 19  2  0
  4 30  1  0
  4 31  1  0
  5 34  1  0
  5 35  1  0
  6 28  1  0
  7 29  1  0
  8 32  1  0
  9 33  1  0
 10 36  1  0
 11 37  1  0
 20 48  2  0
 21 30  1  0
 21 38  1  0
 21 39  1  0
 22 35  1  0
 22 40  1  0
 22 42  1  0
 23 39  2  0
 23 41  1  0
 24 38  1  0
 24 47  2  0
 25 46  2  0
 25 47  1  0
 26 46  1  0
 27 48  1  0
 28 29  1  0
 28 30  1  0
 29 31  1  0
 31 36  1  0
 32 33  1  0
 32 34  1  0
 33 35  1  0
 34 37  1  0
 38 41  2  0
 40 43  2  0
 41 46  1  0
 42 45  2  0
 43 44  1  0
 43 48  1  0
 44 45  1  0
  7 49  1  0
  8 50  1  0
  9 51  1  0
 13 52  1  0
 14 53  1  0
 16 54  1  0
 17 55  1  0
 26 56  1  0
 26 57  1  0
 27 58  1  0
 27 59  1  0
 28 60  1  1
 29 61  1  1
 30 62  1  6
 31 63  1  6
 32 64  1  1
 33 65  1  1
 34 66  1  6
 35 67  1  6
 36 68  1  0
 36 69  1  0
 37 70  1  0
 37 71  1  0
 39 72  1  0
 40 73  1  0
 42 74  1  0
 44 75  1  0
 44 76  1  0
 45 77  1  0
 47 78  1  0
M  END

