445858
     RDKit          3D

 24 24  0  0  0  0  0  0  0  0999 V2000
   -2.8781    0.3564   -1.0055 O   0  0  0  0  0  0  0  0  0  0  0  0
   -2.8307   -2.1735   -1.8717 O   0  0  0  0  0  0  0  0  0  0  0  0
    3.7456    2.6736    1.1981 O   0  0  0  0  0  0  0  0  0  0  0  0
    4.0777    0.6929    2.1934 O   0  0  0  0  0  0  0  0  0  0  0  0
    0.5215   -0.6866    0.1026 C   0  0  0  0  0  0  0  0  0  0  0  0
   -1.7367   -0.3614   -0.7607 C   0  0  0  0  0  0  0  0  0  0  0  0
   -0.6063    0.1278   -0.0953 C   0  0  0  0  0  0  0  0  0  0  0  0
    0.4943   -2.0115   -0.3497 C   0  0  0  0  0  0  0  0  0  0  0  0
   -1.7301   -1.6858   -1.2185 C   0  0  0  0  0  0  0  0  0  0  0  0
   -0.6260   -2.5114   -1.0147 C   0  0  0  0  0  0  0  0  0  0  0  0
    1.7141   -0.2133    0.8189 C   0  0  0  0  0  0  0  0  0  0  0  0
    2.2168    1.0244    0.6976 C   0  0  0  0  0  0  0  0  0  0  0  0
   -2.9203    1.7008   -0.5508 C   0  0  0  0  0  0  0  0  0  0  0  0
    3.4245    1.3941    1.4457 C   0  0  0  0  0  0  0  0  0  0  0  0
   -2.6715   -3.0975   -2.1176 H   0  0  0  0  0  0  0  0  0  0  0  0
    4.5525    2.8201    1.7345 H   0  0  0  0  0  0  0  0  0  0  0  0
   -0.5910    1.1417    0.2891 H   0  0  0  0  0  0  0  0  0  0  0  0
    1.3509   -2.6648   -0.1955 H   0  0  0  0  0  0  0  0  0  0  0  0
   -0.6200   -3.5393   -1.3631 H   0  0  0  0  0  0  0  0  0  0  0  0
    2.2066   -0.9443    1.4589 H   0  0  0  0  0  0  0  0  0  0  0  0
    1.7843    1.7809    0.0554 H   0  0  0  0  0  0  0  0  0  0  0  0
   -3.8918    2.1189   -0.8317 H   0  0  0  0  0  0  0  0  0  0  0  0
   -2.1461    2.3061   -1.0338 H   0  0  0  0  0  0  0  0  0  0  0  0
   -2.8399    1.7516    0.5400 H   0  0  0  0  0  0  0  0  0  0  0  0
  1  6  1  0
  1 13  1  0
  2  9  1  0
  3 14  1  0
  4 14  2  0
  5  7  2  0
  5  8  1  0
  5 11  1  0
  6  7  1  0
  6  9  2  0
  8 10  2  0
  9 10  1  0
 11 12  2  0
 12 14  1  0
  2 15  1  0
  3 16  1  0
  7 17  1  0
  8 18  1  0
 10 19  1  0
 11 20  1  0
 12 21  1  0
 13 22  1  0
 13 23  1  0
 13 24  1  0
M  END

