444539
     RDKit          3D

 19 19  0  0  0  0  0  0  0  0999 V2000
    2.9890   -0.7150   -2.3076 O   0  0  0  0  0  0  0  0  0  0  0  0
    1.7959    0.1774   -3.9736 O   0  0  0  0  0  0  0  0  0  0  0  0
   -0.1183   -0.0486    0.4864 C   0  0  0  0  0  0  0  0  0  0  0  0
   -1.4801   -0.1958    0.1902 C   0  0  0  0  0  0  0  0  0  0  0  0
    0.2551    0.2704    1.7987 C   0  0  0  0  0  0  0  0  0  0  0  0
    0.9341   -0.2721   -0.5145 C   0  0  0  0  0  0  0  0  0  0  0  0
   -2.4478   -0.0011    1.1796 C   0  0  0  0  0  0  0  0  0  0  0  0
   -0.7126    0.4657    2.7874 C   0  0  0  0  0  0  0  0  0  0  0  0
   -2.0639    0.3324    2.4766 C   0  0  0  0  0  0  0  0  0  0  0  0
    0.8256    0.0814   -1.8046 C   0  0  0  0  0  0  0  0  0  0  0  0
    1.8847   -0.1337   -2.7993 C   0  0  0  0  0  0  0  0  0  0  0  0
    3.5807   -0.7844   -3.0850 H   0  0  0  0  0  0  0  0  0  0  0  0
   -1.8060   -0.4754   -0.8085 H   0  0  0  0  0  0  0  0  0  0  0  0
    1.3050    0.3785    2.0624 H   0  0  0  0  0  0  0  0  0  0  0  0
    1.8463   -0.7341   -0.1427 H   0  0  0  0  0  0  0  0  0  0  0  0
   -3.5012   -0.1158    0.9375 H   0  0  0  0  0  0  0  0  0  0  0  0
   -0.4100    0.7203    3.7998 H   0  0  0  0  0  0  0  0  0  0  0  0
   -2.8170    0.4828    3.2458 H   0  0  0  0  0  0  0  0  0  0  0  0
   -0.0597    0.5671   -2.1987 H   0  0  0  0  0  0  0  0  0  0  0  0
  1 11  1  0
  2 11  2  0
  3  4  2  0
  3  5  1  0
  3  6  1  0
  4  7  1  0
  5  8  2  0
  6 10  2  0
  7  9  2  0
  8  9  1  0
 10 11  1  0
  1 12  1  0
  4 13  1  0
  5 14  1  0
  6 15  1  0
  7 16  1  0
  8 17  1  0
  9 18  1  0
 10 19  1  0
M  END

