
     RDKit          3D

 55 59  0  0  0  0  0  0  0  0999 V2000
    9.4789    2.1045   -0.8988 C   0  0  0  0  0  0  0  0  0  0  0  0
    8.0479    2.2735   -0.9554 O   0  0  0  0  0  0  0  0  0  0  0  0
    7.6307    1.0917   -0.4254 C   0  0  0  0  0  0  0  0  0  0  0  0
    8.6796    0.2732   -0.0800 C   0  0  0  0  0  0  0  0  0  0  0  0
    8.4740   -0.9736    0.4662 C   0  0  0  0  0  0  0  0  0  0  0  0
    7.1513   -1.3863    0.6656 C   0  0  0  0  0  0  0  0  0  0  0  0
    6.0649   -0.5466    0.3292 C   0  0  0  0  0  0  0  0  0  0  0  0
    6.3176    0.7114   -0.2394 C   0  0  0  0  0  0  0  0  0  0  0  0
    4.6684   -0.9715    0.5006 C   0  0  0  0  0  0  0  0  0  0  0  0
    4.2310   -1.7197    1.5265 C   0  0  0  0  0  0  0  0  0  0  0  0
    2.8243   -2.1556    1.7124 C   0  0  0  0  0  0  0  0  0  0  0  0
    2.5219   -2.8767    2.6506 O   0  0  0  0  0  0  0  0  0  0  0  0
    2.0427   -1.6517    0.7570 O   0  0  0  0  0  0  0  0  0  0  0  0
    0.4715   -1.9591    0.6535 P   0  0  0  0  0  5  0  0  0  0  0  0
   -0.2814   -1.2732    1.7649 O   0  0  0  0  0  0  0  0  0  0  0  0
    0.2308   -3.3909    0.2594 O   0  0  0  0  0  1  0  0  0  0  0  0
    0.1634   -1.0636   -0.6755 O   0  0  0  0  0  0  0  0  0  0  0  0
   -1.1993   -1.0316   -1.0558 C   0  0  0  0  0  0  0  0  0  0  0  0
   -1.6797    0.4137   -1.1424 C   0  0  0  0  0  0  0  0  0  0  0  0
   -1.6105    1.1878    0.1763 C   0  0  0  0  0  0  0  0  0  0  0  0
   -2.9804    0.9433    0.7858 C   0  0  0  0  0  0  0  0  0  0  0  0
   -3.8563    0.9451   -0.4693 C   0  0  0  0  0  0  0  0  0  0  0  0
   -3.0671    0.4154   -1.5591 O   0  0  0  0  0  0  0  0  0  0  0  0
   -5.0702    0.1642   -0.3530 N   0  0  0  0  0  0  0  0  0  0  0  0
   -5.1633   -1.2015   -0.2634 C   0  0  0  0  0  0  0  0  0  0  0  0
   -6.4155   -1.6099   -0.2015 N   0  0  0  0  0  0  0  0  0  0  0  0
   -7.1617   -0.4512   -0.2454 C   0  0  0  0  0  0  0  0  0  0  0  0
   -8.5476   -0.2212   -0.2299 C   0  0  0  0  0  0  0  0  0  0  0  0
   -8.9968    1.0505   -0.3348 N   0  0  0  0  0  0  0  0  0  0  0  0
   -8.0812    2.0413   -0.4187 C   0  0  0  0  0  0  0  0  0  0  0  0
   -6.7376    1.9463   -0.4414 N   0  0  0  0  0  0  0  0  0  0  0  0
   -6.3451    0.6635   -0.3501 C   0  0  0  0  0  0  0  0  0  0  0  0
   -9.4850   -1.2459   -0.1451 N   0  0  0  0  0  0  0  0  0  0  0  0
   -3.3382    1.9837    1.7010 O   0  0  0  0  0  0  0  0  0  0  0  0
   -1.5028    2.6095   -0.0874 O   0  0  0  0  0  0  0  0  0  0  0  0
    9.8883    0.8364   -0.3467 O   0  0  0  0  0  0  0  0  0  0  0  0
    9.9027    2.9075   -0.2844 H   0  0  0  0  0  0  0  0  0  0  0  0
    9.8821    2.1899   -1.9146 H   0  0  0  0  0  0  0  0  0  0  0  0
    9.3064   -1.6167    0.7253 H   0  0  0  0  0  0  0  0  0  0  0  0
    6.9719   -2.3785    1.0753 H   0  0  0  0  0  0  0  0  0  0  0  0
    5.5107    1.3794   -0.5218 H   0  0  0  0  0  0  0  0  0  0  0  0
    3.9738   -0.6265   -0.2633 H   0  0  0  0  0  0  0  0  0  0  0  0
    4.8898   -2.0637    2.3152 H   0  0  0  0  0  0  0  0  0  0  0  0
   -1.2930   -1.5113   -2.0368 H   0  0  0  0  0  0  0  0  0  0  0  0
   -1.8327   -1.6124   -0.3749 H   0  0  0  0  0  0  0  0  0  0  0  0
   -1.1044    0.9371   -1.9152 H   0  0  0  0  0  0  0  0  0  0  0  0
   -0.7812    0.9368    0.8371 H   0  0  0  0  0  0  0  0  0  0  0  0
   -3.0121   -0.0188    1.3082 H   0  0  0  0  0  0  0  0  0  0  0  0
   -4.1420    1.9671   -0.7456 H   0  0  0  0  0  0  0  0  0  0  0  0
   -4.2916   -1.8456   -0.2520 H   0  0  0  0  0  0  0  0  0  0  0  0
   -8.4830    3.0483   -0.4803 H   0  0  0  0  0  0  0  0  0  0  0  0
  -10.3674   -0.9809   -0.5584 H   0  0  0  0  0  0  0  0  0  0  0  0
   -9.0925   -2.1475   -0.3969 H   0  0  0  0  0  0  0  0  0  0  0  0
   -2.8213    2.7621    1.4069 H   0  0  0  0  0  0  0  0  0  0  0  0
   -0.5837    2.7483   -0.3829 H   0  0  0  0  0  0  0  0  0  0  0  0
  1 36  1  0
  1  2  1  0
  2  3  1  0
  3  8  1  0
  3  4  2  0
  4  5  1  0
  4 36  1  0
  5  6  2  0
  6  7  1  0
  7  8  2  0
  7  9  1  0
  9 10  2  3
 10 11  1  0
 11 12  2  0
 11 13  1  0
 13 14  1  0
 14 15  2  0
 14 16  1  0
 14 17  1  0
 17 18  1  0
 18 19  1  0
 19 23  1  0
 19 20  1  0
 20 21  1  0
 20 35  1  0
 21 22  1  0
 21 34  1  0
 22 23  1  0
 22 24  1  0
 24 32  1  0
 24 25  1  0
 25 26  2  0
 26 27  1  0
 27 32  2  0
 27 28  1  0
 28 29  2  0
 28 33  1  0
 29 30  1  0
 30 31  2  0
 31 32  1  0
  1 37  1  0
  1 38  1  0
  5 39  1  0
  6 40  1  0
  8 41  1  0
  9 42  1  0
 10 43  1  0
 18 44  1  0
 18 45  1  0
 19 46  1  0
 20 47  1  0
 21 48  1  0
 22 49  1  0
 25 50  1  0
 30 51  1  0
 33 52  1  0
 33 53  1  0
 34 54  1  0
 35 55  1  0
M  CHG  1  16  -1
M  END

